Version 4
SHEET 1 1160 708
WIRE 320 -96 -192 -96
WIRE 960 -96 768 -96
WIRE 768 -64 768 -96
WIRE 416 -32 256 -32
WIRE 320 0 320 -96
WIRE 256 16 256 -32
WIRE 288 16 256 16
WIRE 416 32 416 -32
WIRE 416 32 352 32
WIRE 960 32 960 -96
WIRE 48 48 -192 48
WIRE 288 48 112 48
WIRE 928 48 896 48
WIRE -192 64 -192 48
WIRE 1024 64 992 64
WIRE 1088 64 1024 64
WIRE 320 80 320 64
WIRE 928 80 816 80
WIRE 112 160 112 48
WIRE 896 160 896 48
WIRE 1024 160 1024 144
WIRE 1024 160 896 160
WIRE 1024 176 1024 160
WIRE 320 352 -192 352
WIRE 416 416 256 416
WIRE 320 448 320 352
WIRE 256 464 256 416
WIRE 288 464 256 464
WIRE 416 480 416 416
WIRE 416 480 352 480
WIRE 32 496 -192 496
WIRE 288 496 112 496
WIRE -192 512 -192 496
WIRE 320 528 320 512
WIRE 112 608 112 496
WIRE 112 688 112 672
FLAG -192 144 0
FLAG 112 240 0
FLAG -192 -16 0
FLAG 320 80 0
FLAG 416 32 Vhp
FLAG -192 592 0
FLAG 112 688 0
FLAG -192 432 0
FLAG 320 528 0
FLAG 416 480 Vlp
FLAG 960 96 0
FLAG 768 16 0
FLAG 816 160 0
FLAG 1024 256 0
FLAG 1088 64 Vout
SYMBOL cap 112 32 R90
WINDOW 0 0 32 VBottom 2
WINDOW 3 32 32 VTop 2
SYMATTR InstName C1
SYMATTR Value 1.592m
SYMBOL res 96 144 R0
SYMATTR InstName R1
SYMATTR Value 100
SYMBOL voltage -192 48 R0
WINDOW 123 24 124 Left 2
WINDOW 39 0 0 Left 0
SYMATTR Value2 AC 1
SYMATTR InstName V1
SYMATTR Value ""
SYMBOL OpAmps\\UniversalOpAmp 320 32 R0
SYMATTR InstName U1
SYMBOL voltage -192 -112 R0
WINDOW 123 0 0 Left 0
WINDOW 39 0 0 Left 0
SYMATTR InstName V2
SYMATTR Value 1
SYMBOL cap 128 672 R180
WINDOW 0 24 56 Left 2
WINDOW 3 24 8 Left 2
SYMATTR InstName C2
SYMATTR Value 400µ
SYMBOL res 128 480 R90
WINDOW 0 0 56 VBottom 2
WINDOW 3 32 56 VTop 2
SYMATTR InstName R2
SYMATTR Value 100
SYMBOL voltage -192 496 R0
WINDOW 123 24 124 Left 2
WINDOW 39 0 0 Left 0
SYMATTR Value2 AC 1
SYMATTR InstName V3
SYMATTR Value ""
SYMBOL OpAmps\\UniversalOpAmp 320 480 R0
SYMATTR InstName U2
SYMBOL voltage -192 336 R0
WINDOW 123 0 0 Left 0
WINDOW 39 0 0 Left 0
SYMATTR InstName V4
SYMATTR Value 1
SYMBOL OpAmps\\UniversalOpAmp 960 64 R0
SYMATTR InstName U3
SYMBOL voltage 768 -80 R0
WINDOW 123 0 0 Left 0
WINDOW 39 0 0 Left 0
SYMATTR InstName V5
SYMATTR Value 1
SYMBOL voltage 816 64 R0
WINDOW 123 0 0 Left 0
WINDOW 39 0 0 Left 0
SYMATTR InstName V6
SYMATTR Value 35m
SYMBOL res 1008 48 R0
SYMATTR InstName R3
SYMATTR Value 9.42K
SYMBOL res 1008 160 R0
SYMATTR InstName R4
SYMATTR Value 100
TEXT 384 -136 Left 2 !.ac dec 100 1 1000000
